*HEADING
mode1: beam 
*INCLUDE,INPUT=mesh_beam.inp
*BOUNDARY
*INCLUDE,INPUT=fixed_123.bou
*MATERIAL,NAME=EL
*ELASTIC
30000000, 0.3
*SOLID SECTION,ELSET=volume1,MATERIAL=EL
*STEP
*STATIC
*DLOAD
*INCLUDE,INPUT=load.dlo
*NODE FILE
U
*EL FILE
S
*END STEP
